45
Properties=species:S:1:pos:R:3:forces:R:3 energy=-337.3629862436223 dipole="-0.0018815463000282997 -0.0009069223454733061 -0.0049373699580280254" free_energy=-337.3629862436223 pbc="F F F"
H        6.53956587      -0.85742431       0.15640941       0.00067989      -0.00001516       0.00248554
H        7.76867215      -2.97980063       0.14074039       0.00012129      -0.00014839      -0.00428462
H        6.54432560      -5.11324075       0.14492221      -0.00052629       0.00011178      -0.00352298
H        4.09173141      -5.12254160       0.16529719      -0.00019771       0.00126563       0.00065353
H       -4.09066255      -5.15018133       0.22084457       0.00006827       0.00033857       0.00096385
H       -6.54343385      -5.15345974       0.23360285       0.00022305       0.00000079      -0.00243859
H       -7.77880957      -3.02642879       0.24552339       0.00014726      -0.00000742      -0.00194223
H       -6.56054480      -0.89757005       0.24572571       0.00021756      -0.00023523       0.00057296
H       -2.49260031       6.19927714       0.24107484       0.00157050      -0.00148216      -0.00097469
H       -1.27164459       8.32647694       0.23640763      -0.00035226      -0.00075460      -0.00368428
H        1.18806786       8.33561375       0.21737685      -0.00018980       0.00071881      -0.00405489
H        2.42489075       6.21767708       0.20622701       0.00077399       0.00155927       0.00553671
C       -2.53150907      -3.05539021       0.22651996       0.00052525      -0.00050753       0.00604263
C       -1.28582598      -3.07978169       0.22889995       0.00168549      -0.01737182      -0.00463716
C       -0.00455479      -3.09083982       0.22698137       0.00026460      -0.03113984      -0.00246268
C        1.27662596      -3.07353597       0.21612733      -0.00073428      -0.01528090      -0.01494255
C        3.89926724      -2.99509306       0.17607461      -0.00055025       0.00020980       0.00205957
C        4.62849069      -4.18913257       0.16296676       0.00027005       0.00143520       0.00188831
C        6.00104746      -4.18256906       0.15055478      -0.00008772       0.00038888      -0.00047507
C        6.69105813      -2.98025050       0.14798730       0.00007023       0.00003295      -0.00141757
C        6.00444085      -1.79173955       0.15806270       0.00010497      -0.00000928       0.00279974
C        4.60571354      -1.76398720       0.17405805      -0.00126895       0.00147008       0.00649555
C        3.35850335       0.54451247       0.22781364       0.02994820       0.01719708       0.05685703
C        2.73243713       1.66193751       0.27113704       0.03010808       0.01898947      -0.05972993
C        2.07072062       2.75948503       0.27125420       0.03368449       0.01731575      -0.04923332
C        1.41056164       3.81579767       0.23734819       0.00460460       0.00300964       0.05175215
C       -1.41589195       6.20418816       0.23267826       0.00211977      -0.00096255      -0.00084081
C       -0.73145841       7.39401219       0.22934629       0.00031004      -0.00046124      -0.00231225
C        0.65474268       7.39921426       0.21876077      -0.00006508       0.00036317      -0.00170967
C        1.34821768       6.21467732       0.21412575       0.00041867       0.00081985       0.00281376
C        0.68081565       4.98511072       0.22269137       0.00480767      -0.00001446       0.00261344
C       -0.73857073       4.97983982       0.22894709       0.00036909      -0.00098802       0.00388361
C       -2.10227113       2.73806492       0.25134525      -0.02076562       0.01206341      -0.00590897
C       -2.75179625       1.63359009       0.25807920      -0.02061090       0.01178811      -0.01465266
C       -3.37451135       0.51380313       0.25141931      -0.01702595       0.01017644       0.00032079
C       -3.96866589      -0.58127782       0.24127084      -0.00203257       0.00214699       0.00674200
C       -6.70119438      -3.02124468       0.23931482       0.00007636      -0.00006324      -0.00017748
C       -6.00493847      -4.22000455       0.23245239       0.00018819      -0.00006277      -0.00014849
C       -4.63229462      -4.21963641       0.22609665      -0.00013359       0.00071142       0.00067227
C       -3.90927299      -3.02184844       0.22787416       0.00058328      -0.00148365       0.00236483
C       -4.62206281      -1.79468478       0.23508213       0.00061738       0.00090502       0.00156668
C       -6.02070603      -1.82915701       0.23994604       0.00039411      -0.00024471       0.00121134
C       -1.45664878       3.80360182       0.23797478      -0.00044183       0.00010791       0.01504137
C        2.52190897      -3.03809263       0.19566737       0.00009183      -0.00320202       0.01078958
C        3.94933446      -0.55214585       0.19664813       0.01088186       0.00849432      -0.00669068
